[General]
network = Single_client_a2
cmdenv-status-frequency = 0.5s
record-eventlog = false
sim-time-limit = 1000s
**.vector-recording = false
**.fileSize = 1000KB
**.packetSize = 1KB
**.client.sendingRate = 800Kbps
**.router.latency = 0ms
**.router.throughput = 800Kbps
**.router.queueSize = 100
**.server.latency = 0
**.server.throughput = 2Mbps
**.server.queueSize = 100
**.client.destination = "server"
**.channel.datarate = 10Mbps
**.server.ignore = "A2"
**.A2.sendingRate = ${a1rate=0..4000 step 200} Kbps
